Circuit: * c:\Users\david\Desktop\PhD\progetti\SpiceAgent\PyLTSpice\RC_circuit.asc

Error on line 4 : v1 n001 0 v
	 Unknown parameter "v"
V1: Missing value, assumed 0V @ DC
.OP point found by inspection.

Date: Fri Dec 19 16:20:55 2025
Total elapsed time: 0.010 seconds.

tnom = 27
temp = 27
method = modified trap
totiter = 2082
traniter = 2082
tranpoints = 1042
accept = 1042
rejected = 0
matrix size = 3
fillins = 0
solver = Normal
Matrix Compiler1: 50 bytes object code size  0.1/0.0/[0.0]
Matrix Compiler2: off  [0.0]/0.0/0.1

