Circuit: * c:\Users\david\Desktop\PhD\progetti\SpiceAgent\PyLTSpice\RC_circuit.asc

.OP point found by inspection.

Date: Fri Dec 19 16:26:13 2025
Total elapsed time: 0.006 seconds.

tnom = 27
temp = 27
method = modified trap
totiter = 2208
traniter = 2208
tranpoints = 1105
accept = 1091
rejected = 14
matrix size = 3
fillins = 0
solver = Normal
Matrix Compiler1: 50 bytes object code size  0.1/0.0/[0.0]
Matrix Compiler2: 175 bytes object code size  0.0/0.1/[0.0]

