Circuit: * c:\Users\david\Desktop\PhD\progetti\SpiceAgent\PyLTSpice\RC_circuit.asc

